64
Atom Positions
Ar	-1.530593833534529	2.807788650336505	-2.211405036447558
Ar	-2.0421893310566874	-2.5065995126793457	-1.839709986275909
Ar	-3.0566399680336573	2.4706138293869104	1.7401493950892792
Ar	-1.2709662737021086	2.9401480610770774	2.9867139816941
Ar	2.0092662120893374	-0.17711016211116037	2.5081230775495253
Ar	-2.591259442107263	2.6554904882335384	-2.0260999859686866
Ar	1.6090076139399594	-0.7811428023252054	1.7279812031756787
Ar	-1.2385255418296603	-2.3896481356953343	-2.618142456564656
Ar	-0.4542220743061667	2.3077192525577983	2.6668993000565715
Ar	2.9619413496133573	1.3445551548452643	1.6949307824762467
Ar	1.3230287411619344	0.3237705870558276	1.7770288900974984
Ar	-1.4700147752591128	2.0095597485207994	2.469237609769354
Ar	-2.1385082498793597	2.267834460328003	-2.94430595719363
Ar	-1.8439119939641664	2.3075485435775205	1.4741741488405191
Ar	-2.531529948041489	1.811687820863889	2.387948759829876
Ar	-2.1411696711770487	2.883780456769757	2.3537823126959534
Ar	-0.10959257559353341	-2.935617758642578	2.5882871601075443
Ar	-0.9628454024230209	-2.734165841254762	-1.5739476741744456
Ar	-1.0391195671568765	2.947345286501231	1.9530985455649716
Ar	-0.5035143489184044	3.0265216742031296	-2.5553976078417993
Ar	-0.19512781678386792	-2.1600108384082004	-2.8955089752707854
Ar	-1.865841450326518	2.8603721860395765	-1.1442627776861753
Ar	0.03393261896363686	-1.948512599290356	2.27951111710734
Ar	-1.0146157988564788	-2.3090445538101863	2.5544394165118005
Ar	0.09129315816925532	2.1329093976786817	-2.64654205128386
Ar	-2.23790419534362	-2.8867851806588396	-2.8449305733195596
Ar	0.1274892585601144	1.6254341243043022	2.0800088267196513
Ar	-0.37367856111189823	1.2474918211107706	2.9899096346541665
Ar	-1.0265333530521241	1.9828295356286256	-2.735931062522405
Ar	-0.8180518321779786	2.7123773092247925	0.9076406318331456
Ar	-0.8083741852259565	1.9038026376897763	1.6261771938195464
Ar	0.027211940685762492	2.636053459054872	1.7047414968378538
Ar	0.9337077434837653	-2.140782078630447	3.0119386613037262
Ar	0.5467880396912714	-3.04784573620353	-2.7766603136109893
Ar	1.5087188826558409	-1.1874759479558605	2.7930405894110217
Ar	0.4154635069927757	-1.1656347950919868	3.0319641442932763
Ar	0.42770547915263135	0.5761785871536924	-2.7249066661472154
Ar	1.0978386205432296	-1.6521721244931706	-1.191468576793996
Ar	-0.039445262954596494	-0.8991425521056646	2.093886271687728
Ar	-0.0958813435854795	-0.22442739135868495	2.9654171821003246
Ar	0.7388386293506195	1.476161636632492	3.011609042891937
Ar	0.7657489538527158	1.8617198802768415	1.1641182555615002
Ar	1.1498028649031307	1.327196956224297	2.0045718705188795
Ar	0.361638196906124	0.6205219250292373	2.4130626856109236
Ar	1.2096487642259097	2.347951809216572	-2.6270848185417623
Ar	1.5981204563929206	-2.827239547561337	-2.4699490711867
Ar	1.2021068038541252	2.636313796985503	1.7855878072554923
Ar	0.5817678825227874	2.4581212186656884	2.6461156284054788
Ar	2.3020454135454402	-2.5765735994286745	2.9108509832558243
Ar	2.881445579590279	-2.8961261930053377	-2.4488867226692923
Ar	2.2825637410504784	2.84798153767977	2.2092647800985565
Ar	1.374353797736731	-3.094376406772886	2.7373120764687995
Ar	1.0317118460077248	-0.3936398508999934	-2.7542497524728855
Ar	-2.893439814369864	-2.8662580557541366	-1.2599566914308946
Ar	2.3733539379766837	0.19543077091535954	1.4899234008910494
Ar	0.8630496825582452	-0.365370138091925	2.418396995358333
Ar	1.6017222180972501	2.071982911681258	2.6462135170740213
Ar	1.7505058297823117	1.087734619782716	1.0832745295956263
Ar	2.118931031647217	0.9560750983417678	2.2540079668965376
Ar	1.3313722771373504	0.5666198168736276	2.866868132616866
Ar	2.205561759642909	2.622212029074219	-2.924580012824756
Ar	2.0653837320486117	1.957686608544976	1.6402611374421907
Ar	2.649454899338811	1.8763140833482277	2.5946187717936366
Ar	-3.0528094366144876	2.756325318713052	2.924819682619888
