64
Atom Positions
Ar	-1.4820988527909487	2.793202368659072	-2.187132514379546
Ar	-2.0470234535988228	-2.5298163207111672	-1.86628007555744
Ar	-2.9616855896001146	2.771800646747109	1.7706205863875697
Ar	-1.1865029446330926	2.901698397782992	2.9674088131156466
Ar	1.98821660550112	0.016524467284901423	2.435790740583986
Ar	-2.4954314252631766	2.6604709968399307	-1.758002671571682
Ar	1.7763654232818453	-0.8151835905588856	1.6945883156443902
Ar	-1.2659901331627683	-2.4590007887419594	-2.677968596171705
Ar	-0.44646432272761505	2.2032546794980696	2.4851231923905734
Ar	2.4687359178261916	1.1966562997198746	0.9781347018754261
Ar	1.2085796933402717	0.18970724366768765	1.5805810991260705
Ar	-1.4739061516032717	2.0093597676331933	2.357801921189453
Ar	-2.024364222104161	2.260641692966032	-2.9612914164383897
Ar	-1.9052040914081418	2.440714044870412	1.4458424848163025
Ar	-2.5063636645282115	1.9069089113917643	2.3165238249930455
Ar	-2.0575091216566816	2.979434925593938	2.3717060658130986
Ar	-0.22916988483644118	-2.9891525505966037	2.6386470601141268
Ar	-0.9351381251639879	-2.6179213323713775	-1.6378226754516563
Ar	-1.0437536485528573	2.9428243548643076	1.900951089212608
Ar	-0.4555006095560481	3.0691821564610953	-2.499317219826195
Ar	0.02018519708606714	-2.1761813103017227	-2.8895679638610865
Ar	-1.6738446364365167	2.974494269212923	-1.1113447852577591
Ar	0.1344573510349525	-1.801943284004909	2.3473010768361577
Ar	-1.012829526727419	-2.2728030730080713	2.5308131824978393
Ar	0.05718671809621245	2.18242130860238	-2.756166055266676
Ar	-2.242568176797735	-2.927891542348079	-2.845054453337492
Ar	-0.07801284661420116	1.4269772704727766	1.7520017683095892
Ar	-0.6231284132306709	1.1023656910639712	2.6761864458653255
Ar	-0.9843489250299431	1.9324546480001965	-2.8349207768051796
Ar	-0.985312319186793	2.8901178529375997	0.8114186068393261
Ar	-0.9312099256468551	1.9506788702653948	1.4196071706614442
Ar	-0.02532726727687784	2.604227026011695	1.5882497250593497
Ar	1.4630505988740223	-2.245069307875082	-2.9324618860543366
Ar	0.6359047860495388	-3.028285743871522	-2.8859681832788224
Ar	1.8255294914508697	-1.0202141711784103	2.8148337569662116
Ar	0.8040643222820929	-1.3503806397411529	-3.097395283484995
Ar	0.21438780819905023	0.44224894700593476	-2.967984492067621
Ar	1.1206764314315496	-1.5767136383806752	-0.9367534168463827
Ar	0.10001343661033557	-0.732770660432533	1.8359652395260104
Ar	0.0807855812742515	-0.6020676333652268	2.923006412126946
Ar	0.3979078443986701	1.4330653511345508	2.793822642903791
Ar	0.7408801422441913	1.9307567941786017	1.1386288505516564
Ar	0.9498621061674806	1.1872960293383672	1.8853307533086205
Ar	0.21979172028237537	0.4046874251402186	2.1843482678095825
Ar	1.170321030311288	2.148087418375277	-2.8681979858014097
Ar	1.583615920418123	3.041589124144763	-2.4084012034233675
Ar	1.1708632626434303	2.792307777434673	1.6646750766712932
Ar	0.5644228431954388	2.476023261127522	2.531641729920948
Ar	2.4185879732380267	-2.8594857245847356	-3.0819759973315195
Ar	3.102713361244942	-2.7641185267978576	-2.1959449260820243
Ar	2.231483620008558	2.785417869145861	1.9917711687897004
Ar	1.4892213869079702	3.0119191224682877	2.724180981800477
Ar	1.225488428507723	-0.24373192611299332	-2.808594190562811
Ar	-2.6951722363551385	-2.779529289060262	-1.0368101336506719
Ar	2.2778883740810336	0.139559146531528	1.3077273367064288
Ar	0.9976088200659765	-0.4853980914260263	2.392617559954256
Ar	1.5681021324588995	1.9485724706974672	2.360777399513859
Ar	1.3040432216694695	1.0105256954270905	0.8962666992474926
Ar	2.0049537798401884	1.0202589330130305	1.9261294084005902
Ar	1.1981224856414512	0.648820888605151	2.764351537849863
Ar	2.23039325149652	2.3099982083771335	3.1172092327400867
Ar	1.8309065633970532	2.0133455542509493	1.2969437727874125
Ar	2.6680181931618483	1.838482594562974	2.2121059452664698
Ar	-2.9926448178725016	2.698352056377356	2.8841992243333285
