64
Atom Positions
Ar	-2.276781233715167	-2.3585687210566633	-2.5970065702646883
Ar	-2.5257927388740926	-2.718977033905971	-1.160997716680364
Ar	-2.794448501509109	-2.7101514396515407	0.6928376901644073
Ar	-2.2663635067089833	-2.401717795016503	2.4619012248316166
Ar	-2.6504046033648	-0.26395344132351006	3.108294776142716
Ar	-2.025098440481032	-0.9455228707397021	-0.6247881855883004
Ar	-2.7930348619364187	-1.1965987723143678	1.1959699306901257
Ar	-1.9208037442260233	-0.9588702370697257	2.5452099899328733
Ar	-2.078384198096008	1.4593272792370753	-3.11888356442672
Ar	-2.5236962831146315	0.6524220057781993	-0.6633358850711604
Ar	-3.0920631788289183	0.6054670977126673	1.5053981907917438
Ar	-2.241256139909467	0.9581967220702747	2.2435368397721733
Ar	-2.2025960360268932	2.4199277879378203	-2.5066837383070606
Ar	-1.823956148954439	3.0666214700513503	-0.12633899506407076
Ar	-2.410157255266233	2.4733798111146976	0.6863176411348322
Ar	-2.3656044607418396	2.6738200129712144	2.205521539139725
Ar	-0.9410655884714929	-2.6825687399528366	-2.639960529222349
Ar	-0.35863590917528576	-2.887282368006473	-1.0620778914008158
Ar	-0.6643246274247079	-2.6397327129103347	0.9381762989063649
Ar	-1.1691173004026583	-2.2526611388139246	2.553380399376583
Ar	-0.9647821446549898	-0.8368764333458611	-2.2290901757384383
Ar	-0.8894819521969426	-1.5657586115055517	-0.7256043368626588
Ar	-0.39953903256176115	-0.8109170475943253	1.3887521416106852
Ar	-0.8799591898553558	-0.6767598942547153	2.5116623514516894
Ar	-0.9480682210451459	1.0675050147544711	-2.3496565966603438
Ar	-1.1857685222242376	1.5060932185284264	-1.0073972645649976
Ar	-0.241977829760736	1.0360369661870692	1.170961770748291
Ar	-0.4881836652117495	1.212379994026552	2.4946763909883565
Ar	-0.957242400474553	2.413262373252799	-2.332636549857919
Ar	-0.5877274135439068	2.3677677975591243	-0.6846048563397171
Ar	-1.2666265821443377	2.5567313709003523	0.7301079362410601
Ar	-0.6824768395231855	2.2195139813033533	2.22689027794942
Ar	0.9967781694948306	-2.2903115703927437	-2.7364050216105618
Ar	0.875225379570121	-2.5175049653665376	-0.7250102182606142
Ar	1.0822507094463454	-2.475583779426784	1.0248688157718737
Ar	0.9329973193788987	-2.375327698431657	2.430684420905169
Ar	1.234838485838579	-0.11237717351799237	-2.8408265781047213
Ar	0.7150070214760897	-0.7384463769470182	-0.7432518396640746
Ar	0.616487654814251	-0.6059425599574797	0.9954289937695284
Ar	0.8259144925686375	-0.7544926840523072	2.313611612015264
Ar	0.7122003842117017	0.8431277347808428	-2.3852689360747616
Ar	0.44004795463224244	1.3841685712408154	-0.633498479582074
Ar	0.9024601761554036	1.1597661354994129	0.3928010723312161
Ar	0.5862138458767463	0.8596789154433804	2.6615083518343496
Ar	0.8304226996370923	2.086034382950717	-2.160928280606872
Ar	0.45085388548121275	2.7720440731410116	-0.9436363809679014
Ar	1.0659149464587205	2.740121821138005	0.9844483979837966
Ar	0.23281431054762214	1.5906307700740063	1.8319075474663604
Ar	2.211951683582872	-2.645968043195132	-2.3781679668375224
Ar	2.6775725013688723	-2.2648443071032167	-1.3054486367573537
Ar	2.2452926907801993	-2.3708701335087756	0.8227899666565577
Ar	1.8141098788800738	-2.7292407300080574	2.801651960587904
Ar	2.181780389066411	-0.7227193538044245	-2.0906576925787093
Ar	2.9465729701092043	-1.2244650297175328	-0.7509505205280749
Ar	2.5409159210325436	-0.51358109406921	0.5337380594199019
Ar	2.1697586132572564	-0.9132171948018444	2.3520012056797226
Ar	2.437741325332099	0.8503369820868651	-2.459161891548699
Ar	2.4646136174526756	0.8523813057981657	-0.7337588680321909
Ar	2.3788222972890223	0.7487463912748664	0.7859866549900145
Ar	2.3908241866946467	0.8162596573987786	2.323847382222854
Ar	2.4543920827262946	2.0783964417029894	-2.13992152489715
Ar	2.076423326810189	2.1332321918164334	-0.5303884571382484
Ar	2.270169987090414	2.4130684382125915	0.832422807268264
Ar	-3.0680570518270533	1.924284366914125	1.62322256136284
