64
Atom Positions
Ar	-1.4273039136486192	2.8297689409743265	-2.180488799299643
Ar	-1.9946712717051591	-2.5276967801821613	-1.8963404368994388
Ar	-2.987568762287938	2.773820850351309	1.7587157181021391
Ar	-1.1798593081843096	2.921514031839404	3.028311813822957
Ar	2.003375823597443	-0.10250658663472478	2.439248603538293
Ar	-2.439380758279553	2.637212090995864	-1.9208338031130507
Ar	1.6344118914014212	-0.7912390979833939	1.6765027967675712
Ar	-1.1769598893242303	-2.3345769757083747	-2.6517483811813145
Ar	-0.4667810362754188	2.2113476651214405	2.62552970970711
Ar	2.7699272470652847	1.2509676158610992	1.4021590107963187
Ar	1.1793874324825202	0.231326944356963	1.6759297947034106
Ar	-1.4890805855254792	1.9544682774130102	2.4782114496386116
Ar	-2.08913948764084	2.244571234916406	-2.9258588832229586
Ar	-1.9147272305183547	2.4363371000733265	1.4366576115691796
Ar	-2.5409167259582057	1.9286696457795527	2.250432973247511
Ar	-2.0711125395295005	2.883572887025207	2.3822543234881532
Ar	-0.11583361747066911	-2.9996426086830743	2.6669438906102156
Ar	-0.8953129292317152	-2.642116450760546	-1.6269807581486253
Ar	-1.0463427961453062	2.963824298124009	1.9836479786622885
Ar	-0.4068201576783421	3.0726176544023547	-2.50710239935386
Ar	-0.06522627023048955	-2.1753228002289777	-2.9224610635240635
Ar	-1.7004128439753785	2.9565378152013766	-1.1216759415770925
Ar	0.07127820460008083	-1.8580196033614529	2.2575759339644135
Ar	-0.9347253550508023	-2.347023832212966	2.4950421500895015
Ar	0.04454435166156312	2.088389758263629	-2.6453095827676725
Ar	-2.1346854139500886	-2.935525921047488	-2.8695202324014994
Ar	-0.03971227285858525	1.4993323330828883	1.9496758274501937
Ar	-0.5876065839687792	1.1482610265725093	2.842675328824103
Ar	-1.0555911890859706	1.9429225948530524	-2.703765582220817
Ar	-0.9585664620204133	2.8792120900543967	0.9065631705197745
Ar	-0.9246763727923168	1.9526130724942048	1.5458606486816207
Ar	-0.01426133851372402	2.623562052363993	1.737389695302963
Ar	1.3319211298099	-2.2023198785627844	-3.0182351764091253
Ar	0.6348674497636382	-3.052879014430947	-2.6967051825057586
Ar	1.6770881867643324	-1.126218436870598	2.8772688021339823
Ar	0.6086397203752618	-1.3597237593196239	3.047393667248639
Ar	0.16788964899251857	0.4807619740071596	-2.8995900355000153
Ar	1.1182919088089394	-1.5847059431799861	-0.969514636576096
Ar	0.00678866394908173	-0.6902346760990712	1.8286436553587935
Ar	-0.06273795982676278	-0.5027370602843968	2.920445703259783
Ar	0.5241795526840489	1.3971192656181337	2.858308293496754
Ar	0.6780551545018869	2.059969189848945	1.1276832158966483
Ar	0.975170801070381	1.2851348512527592	1.863077557230052
Ar	0.2176774180487362	0.442217337731754	2.240588120390398
Ar	1.1244951020238894	2.11685361720705	-2.7041473833115823
Ar	1.7268860256279686	3.114982486540211	-2.398259606467918
Ar	1.1851799112898114	2.779235283675045	1.76409002563578
Ar	0.5580690432785471	2.4064110688262463	2.620989867047869
Ar	2.383889197860987	-2.713976573631423	3.062765793625986
Ar	-3.1009559186864566	-2.845337227393454	-2.3938369888631827
Ar	2.2533059759069394	2.8049150995831997	2.1778981293698436
Ar	1.4244794410694963	3.0138965407115945	2.800759684932836
Ar	0.952953854327462	-0.3275679675924468	-2.7627819452182196
Ar	-2.7314271967403227	-2.839043677376707	-1.1506763419790502
Ar	2.2576833593866334	0.21267565497467622	1.4153450901980404
Ar	0.9072077239721912	-0.4606066745138473	2.4237371238870695
Ar	1.526880889928826	1.9445891496564522	2.5053450985824712
Ar	1.7176230967645827	1.0116059808712237	1.0423074618376464
Ar	1.9569880116641487	0.9964164791136554	2.1498507490620513
Ar	1.1521916331476056	0.5067179119529834	2.7757605284241853
Ar	2.262696249634355	2.371449932830151	-3.0032711423711946
Ar	1.8445723494701243	2.017596623098414	1.4714108483761654
Ar	2.6579125620313144	1.8342280398922624	2.365298099725389
Ar	-3.04107430918323	2.7269047122279853	2.878848009970916
