64
Atom Positions
Ar	-1.508349954063977	2.78505322715486	-2.238740146687694
Ar	-2.013504155231721	-2.5883523272575095	-1.810235662819732
Ar	-2.981986341417712	2.935002654745385	1.7648636290607138
Ar	-1.135146988646043	2.870380070731965	2.9701518561799043
Ar	2.071009364841582	0.026659403491325673	2.3975020851837696
Ar	-2.469080843744025	2.6395579877030224	-1.5445620234620243
Ar	1.8853463602593399	-0.7991421852734142	1.6679635912534803
Ar	-1.3520743177030985	-2.4474976404498046	-2.6509266735343857
Ar	-0.49213130022434415	2.1703265354497967	2.3973477538225705
Ar	2.5167689448902753	0.9471887845966664	0.5079404195791137
Ar	1.3040225535221106	0.18979953982887254	1.5833764215649824
Ar	-1.5695541527663899	2.0505973336171612	2.344515288399191
Ar	-2.096669938813176	2.26250237484511	-3.013600816254404
Ar	-1.8984798439098016	2.5400086432528104	1.443237095300275
Ar	-2.6071613267778986	2.0230652234305877	2.107683646792764
Ar	-2.032668825480558	3.0547684880888015	2.362287042500231
Ar	-0.09471751554988916	-2.98902192136092	2.5342020814293287
Ar	-0.9166174293285563	-2.7092118862266217	-1.6803614320825506
Ar	-1.0331222013011434	2.9669233961416444	1.9101851606906486
Ar	-0.40652957048731864	-2.993390344964806	-2.601686048339179
Ar	-0.3890974812948196	-1.8899727514835805	-2.682264820346406
Ar	-1.620739953806555	3.0994350787680256	-0.9327122424507097
Ar	-0.0015693432155927667	-1.680640301844984	2.571517218547819
Ar	-0.9711374211540038	-2.3665658174111384	2.5897496571436536
Ar	0.005030632094358278	2.2392584663794333	-2.891096876706805
Ar	-2.3514440314730267	-2.919304998239757	-2.794785800884614
Ar	-0.1021818568227606	1.4947218034643486	1.6891665485383012
Ar	-0.6162213684789917	1.0511184366349626	2.6293986582082844
Ar	-1.0709964092308084	1.8524045358675592	-2.911884822744253
Ar	-0.9596140120679308	2.978670879922168	0.8540917646250179
Ar	-0.9801389471082604	1.9857374402289958	1.409101941705865
Ar	-0.05706802648282183	2.680644753652852	1.4842933827043083
Ar	1.4266290930398071	-2.2781075589851865	-3.0085425993629356
Ar	0.6293880418267173	-3.060651837624853	-2.915042897847923
Ar	1.9534784376551846	-0.9925944767341308	2.785908134633053
Ar	0.9347579243519233	-1.289295153964452	3.0828468654502172
Ar	0.40744212309732	0.4524996882647918	-2.9636765412478843
Ar	1.1235061843728111	-1.567281058661619	-0.8956881024190624
Ar	0.1379578531402914	-0.7349134301695655	1.8391819301988654
Ar	0.14845958316063346	-0.5618495093225935	2.943771237072128
Ar	0.4012803833384364	1.4018656843925354	2.697454347841604
Ar	0.7052398695211259	1.9516068507176012	1.036690085797896
Ar	0.9088127774546484	1.1753308743960975	1.7450963873262735
Ar	0.3475416921757355	0.3553477885481655	2.192474175179047
Ar	1.1081664373689986	2.037166939718685	-2.977046382299412
Ar	1.6025253934279338	2.8978993585581447	-2.53126464090174
Ar	1.1081132699381726	2.829610860716345	1.5462915766314564
Ar	0.5509408852203701	2.4199833482397404	2.3915071404368717
Ar	2.4413011040326227	-2.8424509294026876	-2.959726284969358
Ar	-3.1082482066232417	-2.8303215245145266	-2.0006188875949293
Ar	2.1460981473734764	2.9061274696335753	1.8766024382547704
Ar	1.396453492055378	3.06142693212266	2.5931228400023407
Ar	1.2876692402532246	-0.22536749485752505	-2.853687971867492
Ar	-2.6777779321399597	-2.571223446411449	-0.9544030950937934
Ar	2.3404650348007676	0.13225017071267686	1.2481445320664282
Ar	1.0934853612066346	-0.5003120627210018	2.358535157999139
Ar	1.493856060342778	1.9280745022135415	2.223788869983255
Ar	1.428721102795099	0.967382900101935	0.8164192916580002
Ar	1.992782210849728	1.0232444981061297	1.7968675269666816
Ar	1.3021644525870366	0.7359194034523493	2.6592326788047416
Ar	2.167890109694908	2.3283631235770565	2.978229358478207
Ar	1.802476842131382	1.990387078739329	1.1764299258099058
Ar	2.5612620509559374	1.9213898701503096	2.0341393409002544
Ar	-3.032943408563596	2.706348944500623	2.8359967754910134
