64
Atom Positions
Ar	-1.8418712385050346	-2.9802337421527607	-2.514195773844018
Ar	-2.292159269584219	-2.7474280068038945	-1.6079125048573912
Ar	2.9927184669362914	3.057688931449505	1.0055283640854116
Ar	-1.675601406148771	-2.810436522138395	2.6800723748951416
Ar	2.873389556817332	-0.05442633409306907	2.170722220488691
Ar	-2.590158299053039	-2.380849545061565	-0.3608166617983648
Ar	2.8026905728673137	-0.7469895843841208	1.3755360166735473
Ar	-2.2084418548629667	-1.8558470516802537	-2.94713348479599
Ar	-1.3160225648469943	2.2102889016098937	2.5270271499264743
Ar	-2.9336747182068406	0.2915023560419283	-0.39498278775893203
Ar	2.0193766825304884	-0.05928767519043188	1.4957338688079247
Ar	-2.049762907470442	1.6575151331062123	1.7675513915874674
Ar	-2.1616602462896735	2.3943581542154204	-3.11438825531937
Ar	-2.1169459170238847	-2.788333810843148	1.0372897412861315
Ar	-2.263463632657193	2.4734216177643598	1.0298519547661185
Ar	-2.216981124626189	2.714397301514512	2.0801102846521218
Ar	-0.9658221341718081	2.8516597429756247	-2.947452407844125
Ar	-0.3776956352037688	-2.98895950956664	-1.0816385957863917
Ar	-0.5999064644244791	-2.912556567408	1.1125806802543563
Ar	-1.079319799294045	-2.288032736233375	-2.8013014694178597
Ar	-1.1474190315489947	-1.127982235078325	-2.4349287615645077
Ar	-1.4563295516888752	-2.6592030926240833	-0.7380456832037874
Ar	-0.30261928625549883	-0.7608067773030163	2.1540854258907336
Ar	-1.3514447979038797	-1.4445196884066194	2.732695112564973
Ar	-0.27939011606631947	1.5284003385484999	-2.7242860965328797
Ar	-3.038387282149281	3.0534345783607755	-2.285931167929596
Ar	0.0660765627768134	1.361645834094623	1.4209675829250648
Ar	-0.39849764499592544	1.3498003432031007	2.463100785747611
Ar	-1.296637067335861	1.8531138203511714	-2.589792067571632
Ar	-0.8432790308491196	2.8489323716220527	-0.13786835016134447
Ar	-1.1835092991077305	2.488542721827014	0.832997200456945
Ar	-0.5805324549170119	2.167850129841568	1.7087133973329403
Ar	1.5890151786054503	-2.3591211459122645	-2.6870212877871262
Ar	0.7692778281545984	-2.679633926334783	-1.0124801076491652
Ar	1.9465390932637296	-1.464030269613187	1.9448406210277698
Ar	1.2391567578929559	-2.0845601707500405	2.5092642779566114
Ar	1.1842294717684467	0.3564922157223007	3.0272622518913517
Ar	0.8071927337377618	-1.063025732640619	-0.5477592573497043
Ar	1.1920984173316604	-0.6926148166166595	1.732435094342594
Ar	0.7372342073538305	-0.7099990329363313	2.7510176902358854
Ar	0.6649646883239697	1.2999394064189316	3.0630209686060414
Ar	0.36106385578552436	1.7289189970281358	0.4750707767052287
Ar	1.3921159068310178	1.254501964216404	1.2738496565489692
Ar	0.7208728797587716	0.6901870554979244	2.0597013863657363
Ar	1.085735001558377	1.9168093910380843	-2.418240212662024
Ar	1.1030484231619546	2.898699083662456	-1.866511935268222
Ar	1.3088916348655077	2.3512526837342245	0.9398963539249543
Ar	0.459419400785698	2.002187526478404	2.2718326596049634
Ar	2.163364963610954	-2.964470692440808	-1.910380856270776
Ar	2.9263617398572075	-2.218278974781965	-1.3221999035508754
Ar	1.9352489454618826	-2.9534277001537363	1.30542614987543
Ar	1.5596076195909445	2.750727198335822	-2.9133134009569543
Ar	2.0000858678466136	-0.41428085096750245	-2.646628699733351
Ar	3.1026652846894383	-1.3370357008065161	-0.4985571882534101
Ar	2.663832991604462	-0.09771764391576854	0.4172608521118102
Ar	1.8372012952718144	-0.423506523328101	2.500312624446809
Ar	1.764812050842104	1.419146107847296	-3.0170626129505846
Ar	2.3025852527234916	0.902609834973398	-0.3276941450333908
Ar	2.297062924790125	0.9226953993396139	0.7678558244475044
Ar	2.0909760792832026	0.753112023179503	2.440604845846021
Ar	2.162947942803533	2.2537761768983655	-2.2349993767306158
Ar	1.6008953701464463	1.6288897438116088	0.20045431329888608
Ar	2.369765007853643	2.1742244198192298	0.7220141319617253
Ar	3.113174936678444	2.2422287382139325	1.7121201043682852
