64
Atom Positions
Ar	-1.6328671591598534	2.8713056432732964	-2.4179089144270334
Ar	-2.2697084880546354	-2.7408443856329736	-1.6283912669907457
Ar	3.09617699591091	3.03038639618433	1.7732871395165066
Ar	-1.5072028030533744	-3.008678893475971	2.7669983682854946
Ar	2.4828398483751366	0.26977791802683226	2.0677861678668394
Ar	-2.6412702615275716	-2.5458805789792	-0.43706660939198505
Ar	2.5045087131280956	-0.7385547385777587	1.5779980166080252
Ar	-1.9769072870407092	-2.3595041098384666	-2.701863123506568
Ar	-0.889555342934746	2.406304013646639	2.139606886139
Ar	2.917452821310138	0.26750891034707935	-0.0509710988855101
Ar	1.426206430887091	0.28406578221031564	1.3710024234203422
Ar	-1.8390436709957152	1.7827195675225127	2.077396152903021
Ar	-2.2046882478197523	2.460338138449214	2.9681735994426655
Ar	-2.139443451272247	-3.035851782571256	0.8639756760401642
Ar	-2.6436238004665533	2.1718834077824685	1.2178665895551646
Ar	-2.1216649186427388	2.8412872450868383	1.950343234794837
Ar	-0.4016745963193107	2.9723465349256264	2.8518554680583756
Ar	-0.5688671263048226	-2.972417778960378	-0.7622042029039746
Ar	-0.6856381376434939	-2.8652606095522053	1.678347335380531
Ar	-0.9087961350453089	-2.560633533192818	-2.611446277111704
Ar	-1.2941664567923556	-1.4731209018881186	-2.635923930824344
Ar	-1.6709900894414105	3.0445903395429976	-0.7789667034964638
Ar	-0.24074964126574105	-1.0370928599418798	2.440856263674953
Ar	-1.0308611407238493	-1.9875975168567672	2.6405976498165176
Ar	-0.06361030697241876	2.0316680614765117	-2.987705874775238
Ar	-2.815375406327309	3.031892140833084	-2.539268767023829
Ar	0.06074072954979304	1.301916062180637	1.5335514989202483
Ar	-0.5529337439034601	1.4513781093682256	2.485253758245208
Ar	-1.197118738941085	2.0497664350432236	-3.086968253823133
Ar	-0.9519410935032511	3.086577804184082	0.3328149789092891
Ar	-1.3761805607426476	2.468257511492637	1.1395252939888705
Ar	-0.30679006241573337	2.2728398360439614	1.2918996228419095
Ar	1.4902049891007616	-2.4336031562026506	-2.491618664694168
Ar	0.37689050051411277	-2.998814336534415	-1.6369946330528249
Ar	2.2604162060135833	-1.2436339775266108	2.4779399834108364
Ar	1.431008753081361	-1.4122577897001518	-3.031358162346927
Ar	1.0058483776394969	0.4626213020792247	-3.072810739610383
Ar	0.8621005345465913	-1.1860834993439147	-0.5668514122594157
Ar	0.5955714120823825	-0.651753515196178	1.8330216251894127
Ar	0.7255348579663887	-0.5944962049686033	2.905360335533376
Ar	0.5973521370972632	1.33327630696298	2.6071355304119246
Ar	0.5722171112452061	1.778048439220698	0.6901997496924093
Ar	1.1916559443877919	1.358541873345179	1.5543848016080792
Ar	0.6131225856511575	0.3534601851389958	2.1381895148925114
Ar	1.016614214683755	2.0007962439287477	-2.8822347911924373
Ar	1.2599446711383395	2.7766152690021384	-2.090097101673927
Ar	0.9864793539807968	2.427204337878906	1.4708436225251775
Ar	0.251992936138163	2.2938325560343547	2.2686428445717572
Ar	2.3361874576147956	3.0620822162827155	-2.248583093914643
Ar	2.8796287340962037	-2.4564944296833726	-1.5196447267249749
Ar	1.8483971214118773	2.9667290067922965	1.778367762140678
Ar	1.6472350806070057	2.857970191736386	3.060328462714052
Ar	1.745854793217421	-0.3367050717316147	-3.0027292033291584
Ar	3.0858011393052056	-1.6138887551015246	-0.7413903202135135
Ar	2.3954875452280087	0.12069046620858082	0.9232385630585478
Ar	1.6092468194864313	-0.37882537528716	2.184169027314325
Ar	1.5253622894192427	1.9739210919586307	2.325357509209227
Ar	2.210921799537643	1.0330945592708938	0.2934214924076408
Ar	2.164345375476393	1.116594726808568	1.511372341618233
Ar	1.5920204168596337	0.825013375888838	2.4072320220939654
Ar	2.0439172228051357	2.0219149291632013	-2.475131854764414
Ar	1.7196932732943493	1.9500762309394633	0.8311079258352301
Ar	2.5040612495676227	2.1457045372056216	1.5926535773957173
Ar	-2.9237548920272243	2.0210619122879416	2.2754271353035618
